# NATS Leaf Node — Secondary Hosts
# Deploy on any host that needs to participate in the HomericIntelligence event mesh.
#
# Before deploying, update the remotes URL to your primary NATS server's Tailscale IP.
# The port MUST be 7422 (leafnode TLS port), NOT 4222 (client port).
#
# Example:
#   Primary host (epimetheus):  100.92.173.32
#   Control host:               100.73.61.56
#
# TLS certificates must be provisioned before starting this node (see ADR 008 / ADR 010).
# Place certs in /etc/nats/certs/ with permissions: chmod 600 key, chmod 644 cert/ca

port = 4222

# TLS for local client connections on this leaf node — mutual TLS; maps SAN-DNS to account user
tls {
  cert_file      = "/etc/nats/certs/server-cert.pem"
  key_file       = "/etc/nats/certs/server-key.pem"
  ca_file        = "/etc/nats/certs/ca.pem"
  verify_and_map = true
}

jetstream {
  store_dir = "/var/lib/nats/jetstream"
}

# Subject-scoped accounts (ADR-010) — identical to server.conf so leaf-local clients are
# authenticated and authorized with the same least-privilege policy.
# Every client cert MUST carry CN=<role>.homeric AND a DNS SAN equal to <role>.homeric.
accounts {
  SYS {
    users = [ { user = "sys.homeric" } ]            # SAN-DNS=sys.homeric — system account
  }
  HERMES {
    users = [ {
      user = "hermes.homeric"                        # SAN-DNS=hermes.homeric
      permissions {
        publish   { allow = ["hi.>", "$JS.API.>"] }
        subscribe { allow = ["hi.>", "_INBOX.>"] }
      }
    } ]
  }
  AGENTS {
    users = [ {
      user = "agent.homeric"                         # SAN-DNS=agent.homeric
      permissions {
        publish   { allow = ["hi.agents.>", "hi.tasks.>"] }
        subscribe {
          allow = ["hi.agents.>", "_INBOX.>"]
          deny  = ["hi.research.>"]
        }
      }
    } ]
  }
  KEYSTONE {
    users = [ {
      user = "keystone.homeric"                      # SAN-DNS=keystone.homeric
      permissions {
        publish   { allow = ["$JS.API.CONSUMER.>", "$JS.API.STREAM.INFO.>", "$JS.ACK.>"] }
        subscribe { allow = ["hi.tasks.>", "_INBOX.>"] }
      }
    } ]
  }
  TELEMACHY {
    users = [ {
      user = "telemachy.homeric"                     # SAN-DNS=telemachy.homeric
      permissions {
        publish   { allow = ["hi.tasks.>", "$JS.API.>"] }
        subscribe { allow = ["hi.tasks.>", "_INBOX.>"] }
      }
    } ]
  }
}

system_account = SYS

leafnodes {
  remotes = [
    {
      # Primary NATS server's Tailscale IP — TLS on leafnode port (7422)
      # Set NATS_SERVER_IP environment variable or update the IP below.
      # To find your primary NATS server's Tailscale IP, run on that host: tailscale ip -4
      # Default below is epimetheus (100.92.173.32) — update for your network.
      url = "nats+tls://100.92.173.32:7422"
      tls {
        # Leaf presents its own cert so the hub can authenticate it (ADR-010 §1).
        cert_file = "/etc/nats/certs/server-cert.pem"
        key_file  = "/etc/nats/certs/server-key.pem"
        ca_file   = "/etc/nats/certs/ca.pem"
      }
      # Authenticate to the hub (issue #176). RECOMMENDED: per-leaf NKey/JWT:
      #   credentials = "/etc/nats/certs/leaf.creds"
      # BOOTSTRAP fallback: shared token via env substitution (must match hub).
      token = "$NATS_LEAF_TOKEN"
    }
  ]
}

# HTTP monitoring endpoint (intentionally plain HTTP — localhost only, for Prometheus scraping)
# Monitoring bound to localhost only — access via ssh tunnel or local curl.
# Uncomment the monitoring_authorization block once $NATS_MONITORING_PASSWORD
# is set in your deployment secrets.
http: "127.0.0.1:8222"

# monitoring_authorization {
#   username = "monitoring"
#   password = "$NATS_MONITORING_PASSWORD"
# }
